Version 4
SHEET 1 3216 1684
WIRE -192 -336 -336 -336
WIRE 336 -336 -192 -336
WIRE 384 -336 336 -336
WIRE 816 -336 464 -336
WIRE 928 -336 816 -336
WIRE 976 -336 928 -336
WIRE 1200 -336 1056 -336
WIRE 1584 -336 1200 -336
WIRE 1856 -336 1584 -336
WIRE 1584 -320 1584 -336
WIRE 336 -304 336 -336
WIRE 928 -304 928 -336
WIRE -336 -272 -336 -336
WIRE -192 -272 -192 -336
WIRE 1584 -224 1584 -256
WIRE 336 -208 336 -240
WIRE 928 -208 928 -240
WIRE -336 -176 -336 -192
WIRE 112 -176 -336 -176
WIRE -192 -160 -192 -192
WIRE 64 -160 -192 -160
WIRE -336 -96 -336 -176
WIRE -304 -96 -336 -96
WIRE -192 -96 -192 -160
WIRE -192 -96 -240 -96
WIRE -336 -64 -336 -96
WIRE -192 -64 -192 -96
WIRE -496 -16 -624 -16
WIRE -416 -16 -432 -16
WIRE -384 -16 -416 -16
WIRE -112 -16 -144 -16
WIRE 0 -16 -112 -16
WIRE -368 64 -368 32
WIRE -272 64 -368 64
WIRE -160 64 -160 32
WIRE -160 64 -272 64
WIRE 112 64 112 -176
WIRE 192 64 112 64
WIRE 336 64 256 64
WIRE 544 64 336 64
WIRE -416 112 -416 -16
WIRE -272 112 -272 64
WIRE 544 112 544 64
WIRE -112 128 -112 -16
WIRE 0 128 0 -16
WIRE 336 128 336 64
WIRE 496 128 480 128
WIRE 1344 160 608 160
WIRE 1680 176 1488 176
WIRE 1712 176 1680 176
WIRE 1488 208 1488 176
WIRE 1488 208 1424 208
WIRE 1536 208 1488 208
WIRE 1424 224 1424 208
WIRE 1536 224 1536 208
WIRE 560 256 560 208
WIRE 640 256 560 256
WIRE 816 256 816 -336
WIRE 816 256 720 256
WIRE -416 272 -416 192
WIRE -272 272 -272 192
WIRE -272 272 -416 272
WIRE -112 272 -112 208
WIRE -112 272 -272 272
WIRE 336 272 336 208
WIRE 384 272 336 272
WIRE 1200 272 1200 -336
WIRE 1344 272 1344 240
WIRE 1344 272 1200 272
WIRE -272 304 -272 272
WIRE 704 304 560 304
WIRE 816 304 816 256
WIRE 816 304 784 304
WIRE 1344 304 1344 272
WIRE 1424 320 1424 304
WIRE 1472 320 1424 320
WIRE 1536 320 1536 304
WIRE 1536 320 1472 320
WIRE -624 336 -624 -16
WIRE 336 336 336 272
WIRE 560 336 560 304
WIRE 1472 336 1472 320
WIRE 1856 352 1856 -336
WIRE 2048 352 2048 304
WIRE 1344 384 608 384
WIRE -272 416 -272 384
WIRE 0 416 0 192
WIRE 0 416 -272 416
WIRE 496 416 480 416
WIRE 64 480 64 -160
WIRE 192 480 64 480
WIRE 336 480 336 416
WIRE 336 480 256 480
WIRE 544 480 544 432
WIRE 544 480 336 480
WIRE -272 528 -272 416
WIRE -272 624 -272 608
WIRE -48 624 -272 624
WIRE 0 624 0 416
WIRE 96 624 0 624
WIRE 1680 624 1680 176
WIRE 1680 624 176 624
WIRE -272 656 -272 624
WIRE -48 656 -48 624
WIRE -624 768 -624 416
WIRE -272 768 -272 736
WIRE -272 768 -624 768
WIRE -48 768 -48 720
WIRE -48 768 -272 768
WIRE 1216 768 -48 768
WIRE 1856 768 1856 432
WIRE 1856 768 1216 768
WIRE 2048 768 2048 432
WIRE 2048 768 1856 768
WIRE 1216 800 1216 768
FLAG 1472 336 0
FLAG 480 128 0
FLAG 480 416 0
FLAG 928 -208 0
FLAG 2048 304 BIAS
IOPIN 2048 304 Out
FLAG 1712 176 LOAD
IOPIN 1712 176 Out
FLAG 384 272 BIAS
IOPIN 384 272 In
FLAG 336 -208 0
FLAG 1216 800 0
FLAG 1584 -224 0
SYMBOL tetrode 560 160 R90
WINDOW 0 -49 -82 VRight 2
WINDOW 3 -24 -112 VRight 2
SYMATTR InstName U1
SYMATTR Value EL34
SYMBOL tetrode 560 384 M270
WINDOW 0 -21 -60 VLeft 2
WINDOW 3 -46 -61 VLeft 2
SYMATTR InstName U2
SYMATTR Value EL34
SYMBOL ind2 1328 144 R0
WINDOW 0 -28 45 Left 2
WINDOW 3 -32 75 Left 2
SYMATTR InstName L1
SYMATTR Value 50H
SYMATTR Type ind
SYMATTR SpiceLine Rser=32
SYMBOL ind2 1328 288 R0
WINDOW 0 -29 37 Left 2
WINDOW 3 -31 66 Left 2
SYMATTR InstName L2
SYMATTR Value 50H
SYMATTR Type ind
SYMATTR SpiceLine Rser=32
SYMBOL ind2 1408 208 R0
SYMATTR InstName L3
SYMATTR Value 0.54
SYMATTR Type ind
SYMATTR SpiceLine Rser=2
SYMBOL res 1520 208 R0
SYMATTR InstName R1
SYMATTR Value 8
SYMBOL voltage 1856 336 R0
WINDOW 0 38 66 Left 2
WINDOW 123 0 0 Left 2
WINDOW 39 24 132 Left 2
SYMATTR InstName VHT
SYMATTR SpiceLine Rser=125
SYMATTR Value 400
SYMBOL cap 912 -304 R0
SYMATTR InstName C1
SYMATTR Value 47u
SYMBOL voltage 2048 448 R180
WINDOW 0 -117 41 Left 2
WINDOW 3 -89 16 Left 2
WINDOW 123 0 0 Left 2
WINDOW 39 -136 -11 Left 2
SYMATTR InstName VBIAS
SYMATTR Value 30
SYMATTR SpiceLine Rser=1000
SYMBOL res 320 112 R0
SYMATTR InstName R3
SYMATTR Value 220k
SYMBOL res 320 320 R0
SYMATTR InstName R4
SYMATTR Value 220k
SYMBOL res 368 -320 R270
WINDOW 0 32 56 VTop 2
WINDOW 3 0 56 VBottom 2
SYMATTR InstName R5
SYMATTR Value 20k
SYMBOL cap 320 -304 R0
SYMATTR InstName C2
SYMATTR Value 47u
SYMBOL cap 192 496 R270
WINDOW 0 32 32 VTop 2
WINDOW 3 0 32 VBottom 2
SYMATTR InstName C3
SYMATTR Value 0.022u
SYMBOL cap 192 80 R270
WINDOW 0 32 32 VTop 2
WINDOW 3 0 32 VBottom 2
SYMATTR InstName C4
SYMATTR Value 0.022u
SYMBOL cap -496 0 R270
WINDOW 0 32 32 VTop 2
WINDOW 3 0 32 VBottom 2
SYMATTR InstName C7
SYMATTR Value 0.022u
SYMBOL voltage -624 320 R0
WINDOW 123 22 127 Left 2
WINDOW 39 20 162 Left 2
SYMATTR Value2 AC 1 0
SYMATTR InstName V1
SYMATTR Value SINE(0 4 200)
SYMBOL triode -336 -16 R0
WINDOW 0 -71 -90 Left 2
WINDOW 3 -129 -56 Left 2
SYMATTR InstName U5
SYMATTR Value NH12AX7
SYMBOL triode -192 -16 M0
WINDOW 0 -71 -90 Left 2
WINDOW 3 -129 -56 Left 2
SYMATTR InstName U6
SYMATTR Value NH12AX7
SYMBOL res -432 96 R0
SYMATTR InstName R14
SYMATTR Value 1meg
SYMBOL res -288 96 R0
SYMATTR InstName R15
SYMATTR Value 470
SYMBOL res -128 112 R0
SYMATTR InstName R16
SYMATTR Value 1meg
SYMBOL res -288 288 R0
SYMATTR InstName R17
SYMATTR Value 10k
SYMBOL res -288 640 R0
SYMATTR InstName R19
SYMATTR Value {PRESENCE}
SYMBOL cap -16 128 R0
SYMATTR InstName C13
SYMATTR Value 0.1u
SYMBOL res -352 -288 R0
SYMATTR InstName R6
SYMATTR Value 82k
SYMBOL res -208 -288 R0
SYMATTR InstName R7
SYMATTR Value 100k
SYMBOL res -288 512 R0
SYMATTR InstName R8
SYMATTR Value {4.7k-PRESENCE}
SYMBOL ind 1072 -320 M270
WINDOW 0 32 56 VTop 2
WINDOW 3 5 56 VBottom 2
SYMATTR InstName L4
SYMATTR Value 5m
SYMBOL cap -64 656 R0
SYMATTR InstName C6
SYMATTR Value 0.1u
SYMBOL res 192 608 R90
WINDOW 0 0 56 VBottom 2
WINDOW 3 32 56 VTop 2
SYMATTR InstName R
SYMATTR Value 47k
SYMBOL res 736 240 R90
WINDOW 0 0 56 VBottom 2
WINDOW 3 32 56 VTop 2
SYMATTR InstName R2
SYMATTR Value 220
SYMBOL res 800 288 R90
WINDOW 0 0 56 VBottom 2
WINDOW 3 32 56 VTop 2
SYMATTR InstName R9
SYMATTR Value 220
SYMBOL cap 1568 -320 R0
SYMATTR InstName C8
SYMATTR Value 47u
SYMBOL cap -240 -112 R90
WINDOW 0 0 32 VBottom 2
WINDOW 3 32 32 VTop 2
SYMATTR InstName C5
SYMATTR Value 47p
TEXT 1392 128 Left 2 !K1 L1 L2 L3 0.9995
TEXT -320 1016 Left 2 !.INC 6ca7.inc
TEXT -320 1056 Left 2 !.INC dmtriodep.inc
TEXT -320 1128 Left 2 !.tran 0 60m 10m
TEXT -320 1168 Left 2 !;ac dec 50 1 1MEG
TEXT -328 856 Left 2 !.param PRESENCE 0.1
TEXT -688 832 Left 2 ;.step param V1 0 10 1
TEXT 1832 880 Left 2 ;.step vbias 41 42 0.5
TEXT 440 912 Left 2 !*\n* Generic pentode model: EL34\n* Copyright 2003--2006 by Ayumi Nakabayashi, All rights reserved.\n* Version 3.01, Generated on Wed Mar 22 17:23:36 2006\n.SUBCKT EL34 A G2 G1 K\nBGG   GG   0 V=V(G1,K)+0.29360503\nBEP   EP   0 V=URAMP(V(A,K))+1e-10\nBEG   EG   0 V=URAMP(V(G1,K))+1e-10\nBEG2  EG2  0 V=URAMP(V(G2,K))+1e-10\nBM1   M1   0 V=(0.040003405*(URAMP(V(EG2)-1e-10)+1e-10))**-0.73308055\nBM2   M2   0 V=(0.67171782*(URAMP(V(GG)+V(EG2)/8.2063559)+1e-10))**2.2330806\nBP    P    0 V=0.0033402929*(URAMP(V(GG)+V(EG2)/12.216969)+1e-10)**1.5\nBIK   IK   0 V=U(V(GG))*V(P)+(1-U(V(GG)))*0.0019762451*V(M1)*V(M2)\nBIG   IG   0 V=0.0016701465*V(EG)**1.5*(V(EG)/(V(EP)+V(EG))*1.2+0.4)\nBIK2  IK2  0 V=V(IK,IG)*(1-0.4*(EXP(-V(EP)/V(EG2)*15)-EXP(-15)))\nBIG2T IG2T 0 V=V(IK2)*(0.87617414*(1-V(EP)/(V(EP)+10))**1.5+0.12382586)\nBIK3  IK3  0 V=V(IK2)*(V(EP)+1250)/(V(EG2)+1250)\nBIK4  IK4  0 V=V(IK3)-URAMP(V(IK3)-(0.0020885491*(V(EP)+URAMP(V(EG2,EP)))**1.5))\nBIP   IP   0 V=URAMP(V(IK4,IG2T)-URAMP(V(IK4,IG2T)-(0.0020885491*V(EP)**1.5)))\nBIAK  A    K I=V(IP)+1e-10*V(A,K)\nBIG2  G2   K I=URAMP(V(IK4,IP))\nBIGK  G1   K I=V(IG)\n* CAPS\nCGA   G1  A  1.1p\nCGK   G1  K  9.1p\nC12   G1  G2 6.1p\nCAK   A   K  8.4p\n.ENDS
LINE Normal 1376 384 1376 160
LINE Normal 1392 387 1392 160
